! Blank file in which we can put "overrides" for parameters
NUM_DIAG_COORDS = 2
DIAG_COORDS = "z Z ZSTAR", "scalar SCALAR SCALAR"
DIAG_COORD_P_REF_SCALAR = 0.0
DIAG_COORD_DEF_SCALAR = "FILE:targetlayers_scalar.nc,interfaces=interfaces"
DIAG_COORD_HISTOGRAM_EXTENSIVE_DIAGS_SCALAR = True
